/*--------------------------------*- C++ -*----------------------------------*\
  =========                 |
  \\      /  F ield         | OpenFOAM: The Open Source CFD Toolbox
   \\    /   O peration     | Website:  https://openfoam.org
    \\  /    A nd           | Version:  10
     \\/     M anipulation  |
\*---------------------------------------------------------------------------*/
FoamFile
{
    format      ascii;
    class       polyBoundaryMesh;
    location    "constant/polyMesh";
    object      boundary;
}
// * * * * * * * * * * * * * * * * * * * * * * * * * * * * * * * * * * * * * //

13
(
    bottomWall
    {
        type            wall;
        inGroups        List<word> 1(wall);
        nFaces          800;
        startFace       74080;
    }
    topWall
    {
        type            wall;
        inGroups        List<word> 1(wall);
        nFaces          0;
        startFace       74880;
    }
    sides1_half0
    {
        type            cyclic;
        inGroups        List<word> 1(cyclic);
        nFaces          0;
        startFace       74880;
        matchTolerance  0.0001;
        neighbourPatch  sides1_half1;
        transformType   translational;
        separation      (0 0 -2);
    }
    sides1_half1
    {
        type            cyclic;
        inGroups        List<word> 1(cyclic);
        nFaces          0;
        startFace       74880;
        matchTolerance  0.0001;
        neighbourPatch  sides1_half0;
        transformType   translational;
        separation      (0 0 2);
    }
    sides2_half0
    {
        type            cyclic;
        inGroups        List<word> 1(cyclic);
        nFaces          0;
        startFace       74880;
        matchTolerance  0.0001;
        neighbourPatch  sides2_half1;
        transformType   translational;
        separation      (0 0 -2);
    }
    sides2_half1
    {
        type            cyclic;
        inGroups        List<word> 1(cyclic);
        nFaces          0;
        startFace       74880;
        matchTolerance  0.0001;
        neighbourPatch  sides2_half0;
        transformType   translational;
        separation      (0 0 2);
    }
    inout1_half0
    {
        type            cyclic;
        inGroups        List<word> 1(cyclic);
        nFaces          640;
        startFace       74880;
        matchTolerance  0.0001;
        neighbourPatch  inout1_half1;
        transformType   translational;
        separation      (4 0 0);
    }
    inout1_half1
    {
        type            cyclic;
        inGroups        List<word> 1(cyclic);
        nFaces          640;
        startFace       75520;
        matchTolerance  0.0001;
        neighbourPatch  inout1_half0;
        transformType   translational;
        separation      (-4 0 0);
    }
    inout2_half0
    {
        type            cyclic;
        inGroups        List<word> 1(cyclic);
        nFaces          0;
        startFace       76160;
        matchTolerance  0.0001;
        neighbourPatch  inout2_half1;
        transformType   translational;
        separation      (4 0 0);
    }
    inout2_half1
    {
        type            cyclic;
        inGroups        List<word> 1(cyclic);
        nFaces          0;
        startFace       76160;
        matchTolerance  0.0001;
        neighbourPatch  inout2_half0;
        transformType   translational;
        separation      (-4 0 0);
    }
    procBoundary0to1
    {
        type            processor;
        inGroups        List<word> 1(processor);
        nFaces          800;
        startFace       76160;
        matchTolerance  0.0001;
        myProcNo        0;
        neighbProcNo    1;
    }
    procBoundary0to2
    {
        type            processor;
        inGroups        List<word> 1(processor);
        nFaces          1280;
        startFace       76960;
        matchTolerance  0.0001;
        myProcNo        0;
        neighbProcNo    2;
    }
    procBoundary0to2throughsides1_half0
    {
        type            processorCyclic;
        inGroups        List<word> 1(processorCyclic);
        nFaces          1280;
        startFace       78240;
        matchTolerance  0.0001;
        myProcNo        0;
        neighbProcNo    2;
        referPatch      sides1_half0;
    }
)

// ************************************************************************* //
