/*--------------------------------*- C++ -*----------------------------------*\
  =========                 |
  \\      /  F ield         | OpenFOAM: The Open Source CFD Toolbox
   \\    /   O peration     | Website:  https://openfoam.org
    \\  /    A nd           | Version:  8
     \\/     M anipulation  |
\*---------------------------------------------------------------------------*/
FoamFile
{
    version     2.0;
    format      ascii;
    class       dictionary;
    location    "system";
    object      controlDict;
}
// * * * * * * * * * * * * * * * * * * * * * * * * * * * * * * * * * * * * * //

application     pisoFoamNN;

startFrom       startTime;

startTime       0;

stopAt          endTime;

endTime         100;

deltaT          0.01;

writeControl    timeStep;

writeInterval   100;

purgeWrite      0;

writeFormat     ascii;

writePrecision  6;

writeCompression off;

timeFormat      general;

timePrecision   6;

runTimeModifiable true;

functions
{
    #includeFunc fieldAverage(U, p, prime2Mean = yes)
}


turbulenceFields1
{
    // Mandatory entries (unmodifiable)
    type            turbulenceFields;
    libs            (fieldFunctionObjects);

    // Mandatory entries (runtime modifiable)
    // Either field or fields entries
    fields          (R devRhoReff);
    field           R;

    // Optional (inherited) entries
    region          region0;
    enabled         true;
    log             true;
    timeStart       0;
    timeEnd         100;
    executeControl  timeStep;
    executeInterval 1;
    writeControl    timeStep;
    writeInterval   1;
}

// ************************************************************************* //
