/*--------------------------------*- C++ -*----------------------------------*\
  =========                 |
  \\      /  F ield         | OpenFOAM: The Open Source CFD Toolbox
   \\    /   O peration     | Website:  https://openfoam.org
    \\  /    A nd           | Version:  8
     \\/     M anipulation  |
\*---------------------------------------------------------------------------*/
FoamFile
{
    version     2.0;
    format      ascii;
    class       polyBoundaryMesh;
    location    "constant/polyMesh";
    object      boundary;
}
// * * * * * * * * * * * * * * * * * * * * * * * * * * * * * * * * * * * * * //

10
(
    bottomWall
    {
        type            wall;
        inGroups        List<word> 1(wall);
        nFaces          1600;
        startFace       300480;
    }
    topWall
    {
        type            wall;
        inGroups        List<word> 1(wall);
        nFaces          1600;
        startFace       302080;
    }
    sides1_half0
    {
        type            cyclic;
        inGroups        List<word> 1(cyclic);
        nFaces          1280;
        startFace       303680;
        matchTolerance  0.0001;
        neighbourPatch  sides1_half1;
        transformType   translational;
        separation      (0 0 -2);
    }
    sides1_half1
    {
        type            cyclic;
        inGroups        List<word> 1(cyclic);
        nFaces          1280;
        startFace       304960;
        matchTolerance  0.0001;
        neighbourPatch  sides1_half0;
        transformType   translational;
        separation      (0 0 2);
    }
    sides2_half0
    {
        type            cyclic;
        inGroups        List<word> 1(cyclic);
        nFaces          1280;
        startFace       306240;
        matchTolerance  0.0001;
        neighbourPatch  sides2_half1;
        transformType   translational;
        separation      (0 0 -2);
    }
    sides2_half1
    {
        type            cyclic;
        inGroups        List<word> 1(cyclic);
        nFaces          1280;
        startFace       307520;
        matchTolerance  0.0001;
        neighbourPatch  sides2_half0;
        transformType   translational;
        separation      (0 0 2);
    }
    inout1_half0
    {
        type            cyclic;
        inGroups        List<word> 1(cyclic);
        nFaces          1280;
        startFace       308800;
        matchTolerance  0.0001;
        neighbourPatch  inout1_half1;
        transformType   translational;
        separation      (4 0 0);
    }
    inout1_half1
    {
        type            cyclic;
        inGroups        List<word> 1(cyclic);
        nFaces          1280;
        startFace       310080;
        matchTolerance  0.0001;
        neighbourPatch  inout1_half0;
        transformType   translational;
        separation      (-4 0 0);
    }
    inout2_half0
    {
        type            cyclic;
        inGroups        List<word> 1(cyclic);
        nFaces          1280;
        startFace       311360;
        matchTolerance  0.0001;
        neighbourPatch  inout2_half1;
        transformType   translational;
        separation      (4 0 0);
    }
    inout2_half1
    {
        type            cyclic;
        inGroups        List<word> 1(cyclic);
        nFaces          1280;
        startFace       312640;
        matchTolerance  0.0001;
        neighbourPatch  inout2_half0;
        transformType   translational;
        separation      (-4 0 0);
    }
)

// ************************************************************************* //
